<configuration> 

<input> 
<net-file value="my_net.net.xml"/> 
<route-files value="my_route.rou.xml"/> 
</input> 
<time> 
<begin value="0"/> 
<end value="2000"/> 
</time> 


<output> 
<netstate-dump value="output.xml" />
</output>

</configuration>